Version 4
SHEET 1 1416 1032
WIRE -736 -48 -736 -64
WIRE -272 16 -272 0
WIRE -736 48 -736 32
WIRE -400 112 -448 112
WIRE -272 112 -272 96
WIRE -272 112 -320 112
WIRE -208 112 -272 112
WIRE -64 112 -128 112
WIRE -16 112 -64 112
WIRE 240 112 64 112
WIRE 352 112 320 112
WIRE -272 128 -272 112
WIRE 240 128 192 128
WIRE -64 144 -64 112
WIRE 96 144 96 0
WIRE 240 144 96 144
WIRE 96 160 96 144
WIRE -272 208 -272 192
WIRE 96 240 96 224
WIRE 192 240 192 128
WIRE 192 240 96 240
WIRE -64 256 -64 208
WIRE 192 256 192 240
WIRE 672 384 672 368
FLAG 96 0 3.3V
FLAG 192 256 0
FLAG -272 208 0
FLAG -272 0 3.3V
FLAG -448 112 MIN_ES
FLAG -736 48 0
FLAG -736 -64 3.3V
FLAG 672 384 0
FLAG -64 256 0
SYMBOL cap 80 160 R0
SYMATTR InstName C1
SYMATTR Value 100nF
SYMATTR SpiceLine Rser=0.2 Lser=1p
SYMBOL res -288 0 R0
SYMATTR InstName R1
SYMATTR Value 100K
SYMBOL cap -288 128 R0
SYMATTR InstName C2
SYMATTR Value 10nF
SYMATTR SpiceLine Rser=0.2 Lser=1p
SYMBOL res -112 96 R90
WINDOW 0 0 56 VBottom 2
WINDOW 3 32 56 VTop 2
SYMATTR InstName R2
SYMATTR Value 1k
SYMBOL voltage -736 -64 R0
WINDOW 123 0 0 Left 0
WINDOW 39 24 124 Left 2
SYMATTR SpiceLine Rser=0.1
SYMATTR InstName V1
SYMATTR Value 3.3V
SYMBOL IEC61000-4-2_ESD_Generator 592 256 M0
WINDOW 39 -44 123 Left 2
SYMATTR SpiceLine IEC61000_4_2_test_level=2 td=10n
SYMATTR InstName X1
SYMBOL res 336 96 R90
WINDOW 0 0 56 VBottom 2
WINDOW 3 32 56 VTop 2
SYMATTR InstName R3
SYMATTR Value 0
SYMBOL zener -48 208 R180
WINDOW 0 24 64 Left 2
WINDOW 3 24 0 Left 2
SYMATTR InstName D1
SYMATTR Value ESD9X3.3ST5G
SYMATTR Prefix X
SYMBOL ind -32 128 R270
WINDOW 0 32 56 VTop 2
WINDOW 3 5 56 VBottom 2
SYMATTR InstName L2
SYMATTR Value 0.01179µH
SYMBOL ind -416 128 R270
WINDOW 0 32 56 VTop 2
WINDOW 3 5 56 VBottom 2
SYMATTR InstName L1
SYMATTR Value 0.02709µH
TEXT -504 408 Left 2 !.tran 1000n
TEXT -432 -280 Left 6 ;Endstop ESD Response
TEXT -432 -208 Left 4 ;4KV Contact IEC61000
TEXT -584 352 Left 2 ;ATSAM3X8EA
TEXT 800 -328 Left 2 !.SUBCKT ESD9X3.3ST5G 7 1\nD1 2 1 MDD1\n.MODEL MDD1 D IS=5.85762e-16 N=1 XTI=1 RS=0.5\n+ CJO=8e-11 TT=9e-10\n*    Leakage Current\nR 1 2 MDR 9.85075e+06\n.MODEL MDR RES TC1=-0.00450549 TC2=0\n*    Breakdown\nRZ 2 3 0.477685 \nD3 4 3 MDD3\n.MODEL MDD3 D IS=2.5e-15 N=0.5 \nEV1 1 4 6 8 1\nIBV 0 6 0.001\nRBV 6 0 MDRBV 5600\n.MODEL MDRBV RES TC1=0.00022\nD4 8 0 MDD3\nL 7 2 1e-15\nIT 0 8 0.001\n.ENDS ESD9X3.3ST5G
RECTANGLE Normal -432 368 -592 -160 2
RECTANGLE Normal 288 240 224 16 2
